components/Menapace_Feeder_PropertyDump.Txt

New Load.no900
! ENABLED
! NPhases = 3
! Nconds = 4
! Nterms = 1
! Yorder = 4
! NodeRef = "nil"
! Terminal Status: [C C C C ]
! Terminal Bus Ref: [-1 -1 -1 -1 ]

! VARIABLES
~ phases=3
~ bus1=255258
~ kV=0.4
~ kW=     3.6
~ pf=1.000
~ model=1
~ yearly=
~ daily=Shape_2
~ duty=
~ growth=
~ conn=wye
~ kvar=     0.0
~ Rneut=-1
~ Xneut=0
~ status=variable
~ class=1
~ Vminpu=0.95
~ Vmaxpu=1.05
~ Vminnorm=0.0
~ Vminemerg=0.0
~ xfkVA=0.0
~ allocationfactor=0.500
~ kVA=     3.6
~ %mean=50
~ %stddev=10
~ CVRwatts=1
~ CVRvars=2
~ kwh=0
~ kwhdays=30
~ Cfactor=4
~ CVRcurve=
~ NumCust=1
~ ZIPV="
~ %SeriesRL=    50.0
~ RelWeight=1
~ Vlowpu=0.5
~ puXharm=0
~ XRharm=6
~ spectrum=defaultload
~ basefreq=50
~ enabled=true
~ like=

New Load.no58
! ENABLED
! NPhases = 3
! Nconds = 4
! Nterms = 1
! Yorder = 4
! NodeRef = "nil"
! Terminal Status: [C C C C ]
! Terminal Bus Ref: [-1 -1 -1 -1 ]

! VARIABLES
~ phases=3
~ bus1=126563
~ kV=0.4
~ kW=     0.7
~ pf=1.000
~ model=1
~ yearly=
~ daily=Shape_1
~ duty=
~ growth=
~ conn=wye
~ kvar=     0.0
~ Rneut=-1
~ Xneut=0
~ status=variable
~ class=1
~ Vminpu=0.95
~ Vmaxpu=1.05
~ Vminnorm=0.0
~ Vminemerg=0.0
~ xfkVA=0.0
~ allocationfactor=0.500
~ kVA=     0.7
~ %mean=50
~ %stddev=10
~ CVRwatts=1
~ CVRvars=2
~ kwh=0
~ kwhdays=30
~ Cfactor=4
~ CVRcurve=
~ NumCust=1
~ ZIPV="
~ %SeriesRL=    50.0
~ RelWeight=1
~ Vlowpu=0.5
~ puXharm=0
~ XRharm=6
~ spectrum=defaultload
~ basefreq=50
~ enabled=true
~ like=

New Load.no68
! ENABLED
! NPhases = 3
! Nconds = 4
! Nterms = 1
! Yorder = 4
! NodeRef = "nil"
! Terminal Status: [C C C C ]
! Terminal Bus Ref: [-1 -1 -1 -1 ]

! VARIABLES
~ phases=3
~ bus1=126858
~ kV=0.4
~ kW=     0.7
~ pf=1.000
~ model=1
~ yearly=
~ daily=Shape_1
~ duty=
~ growth=
~ conn=wye
~ kvar=     0.0
~ Rneut=-1
~ Xneut=0
~ status=variable
~ class=1
~ Vminpu=0.95
~ Vmaxpu=1.05
~ Vminnorm=0.0
~ Vminemerg=0.0
~ xfkVA=0.0
~ allocationfactor=0.500
~ kVA=     0.7
~ %mean=50
~ %stddev=10
~ CVRwatts=1
~ CVRvars=2
~ kwh=0
~ kwhdays=30
~ Cfactor=4
~ CVRcurve=
~ NumCust=1
~ ZIPV="
~ %SeriesRL=    50.0
~ RelWeight=1
~ Vlowpu=0.5
~ puXharm=0
~ XRharm=6
~ spectrum=defaultload
~ basefreq=50
~ enabled=true
~ like=

New Load.no70
! ENABLED
! NPhases = 3
! Nconds = 4
! Nterms = 1
! Yorder = 4
! NodeRef = "nil"
! Terminal Status: [C C C C ]
! Terminal Bus Ref: [-1 -1 -1 -1 ]

! VARIABLES
~ phases=3
~ bus1=130108
~ kV=0.4
~ kW=     0.7
~ pf=1.000
~ model=1
~ yearly=
~ daily=Shape_1
~ duty=
~ growth=
~ conn=wye
~ kvar=     0.0
~ Rneut=-1
~ Xneut=0
~ status=variable
~ class=1
~ Vminpu=0.95
~ Vmaxpu=1.05
~ Vminnorm=0.0
~ Vminemerg=0.0
~ xfkVA=0.0
~ allocationfactor=0.500
~ kVA=     0.7
~ %mean=50
~ %stddev=10
~ CVRwatts=1
~ CVRvars=2
~ kwh=0
~ kwhdays=30
~ Cfactor=4
~ CVRcurve=
~ NumCust=1
~ ZIPV="
~ %SeriesRL=    50.0
~ RelWeight=1
~ Vlowpu=0.5
~ puXharm=0
~ XRharm=6
~ spectrum=defaultload
~ basefreq=50
~ enabled=true
~ like=

New Load.no72
! ENABLED
! NPhases = 3
! Nconds = 4
! Nterms = 1
! Yorder = 4
! NodeRef = "nil"
! Terminal Status: [C C C C ]
! Terminal Bus Ref: [-1 -1 -1 -1 ]

! VARIABLES
~ phases=3
~ bus1=126468
~ kV=0.4
~ kW=     0.7
~ pf=1.000
~ model=1
~ yearly=
~ daily=Shape_1
~ duty=
~ growth=
~ conn=wye
~ kvar=     0.0
~ Rneut=-1
~ Xneut=0
~ status=variable
~ class=1
~ Vminpu=0.95
~ Vmaxpu=1.05
~ Vminnorm=0.0
~ Vminemerg=0.0
~ xfkVA=0.0
~ allocationfactor=0.500
~ kVA=     0.7
~ %mean=50
~ %stddev=10
~ CVRwatts=1
~ CVRvars=2
~ kwh=0
~ kwhdays=30
~ Cfactor=4
~ CVRcurve=
~ NumCust=1
~ ZIPV="
~ %SeriesRL=    50.0
~ RelWeight=1
~ Vlowpu=0.5
~ puXharm=0
~ XRharm=6
~ spectrum=defaultload
~ basefreq=50
~ enabled=true
~ like=

New Load.no52a
! ENABLED
! NPhases = 3
! Nconds = 4
! Nterms = 1
! Yorder = 4
! NodeRef = "nil"
! Terminal Status: [C C C C ]
! Terminal Bus Ref: [-1 -1 -1 -1 ]

! VARIABLES
~ phases=3
~ bus1=109211
~ kV=0.4
~ kW=     0.7
~ pf=1.000
~ model=1
~ yearly=
~ daily=Shape_1
~ duty=
~ growth=
~ conn=wye
~ kvar=     0.0
~ Rneut=-1
~ Xneut=0
~ status=variable
~ class=1
~ Vminpu=0.95
~ Vmaxpu=1.05
~ Vminnorm=0.0
~ Vminemerg=0.0
~ xfkVA=0.0
~ allocationfactor=0.500
~ kVA=     0.7
~ %mean=50
~ %stddev=10
~ CVRwatts=1
~ CVRvars=2
~ kwh=0
~ kwhdays=30
~ Cfactor=4
~ CVRcurve=
~ NumCust=1
~ ZIPV="
~ %SeriesRL=    50.0
~ RelWeight=1
~ Vlowpu=0.5
~ puXharm=0
~ XRharm=6
~ spectrum=defaultload
~ basefreq=50
~ enabled=true
~ like=

New Load.no52
! ENABLED
! NPhases = 3
! Nconds = 4
! Nterms = 1
! Yorder = 4
! NodeRef = "nil"
! Terminal Status: [C C C C ]
! Terminal Bus Ref: [-1 -1 -1 -1 ]

! VARIABLES
~ phases=3
~ bus1=109211
~ kV=0.4
~ kW=     0.7
~ pf=1.000
~ model=1
~ yearly=
~ daily=Shape_1
~ duty=
~ growth=
~ conn=wye
~ kvar=     0.0
~ Rneut=-1
~ Xneut=0
~ status=variable
~ class=1
~ Vminpu=0.95
~ Vmaxpu=1.05
~ Vminnorm=0.0
~ Vminemerg=0.0
~ xfkVA=0.0
~ allocationfactor=0.500
~ kVA=     0.7
~ %mean=50
~ %stddev=10
~ CVRwatts=1
~ CVRvars=2
~ kwh=0
~ kwhdays=30
~ Cfactor=4
~ CVRcurve=
~ NumCust=1
~ ZIPV="
~ %SeriesRL=    50.0
~ RelWeight=1
~ Vlowpu=0.5
~ puXharm=0
~ XRharm=6
~ spectrum=defaultload
~ basefreq=50
~ enabled=true
~ like=

New Load.no902
! ENABLED
! NPhases = 3
! Nconds = 4
! Nterms = 1
! Yorder = 4
! NodeRef = "nil"
! Terminal Status: [C C C C ]
! Terminal Bus Ref: [-1 -1 -1 -1 ]

! VARIABLES
~ phases=3
~ bus1=126674
~ kV=0.4
~ kW=     0.7
~ pf=1.000
~ model=1
~ yearly=
~ daily=Shape_1
~ duty=
~ growth=
~ conn=wye
~ kvar=     0.0
~ Rneut=-1
~ Xneut=0
~ status=variable
~ class=1
~ Vminpu=0.95
~ Vmaxpu=1.05
~ Vminnorm=0.0
~ Vminemerg=0.0
~ xfkVA=0.0
~ allocationfactor=0.500
~ kVA=     0.7
~ %mean=50
~ %stddev=10
~ CVRwatts=1
~ CVRvars=2
~ kwh=0
~ kwhdays=30
~ Cfactor=4
~ CVRcurve=
~ NumCust=1
~ ZIPV="
~ %SeriesRL=    50.0
~ RelWeight=1
~ Vlowpu=0.5
~ puXharm=0
~ XRharm=6
~ spectrum=defaultload
~ basefreq=50
~ enabled=true
~ like=

New Load.no54
! ENABLED
! NPhases = 3
! Nconds = 4
! Nterms = 1
! Yorder = 4
! NodeRef = "nil"
! Terminal Status: [C C C C ]
! Terminal Bus Ref: [-1 -1 -1 -1 ]

! VARIABLES
~ phases=3
~ bus1=116757
~ kV=0.4
~ kW=     0.7
~ pf=1.000
~ model=1
~ yearly=
~ daily=Shape_1
~ duty=
~ growth=
~ conn=wye
~ kvar=     0.0
~ Rneut=-1
~ Xneut=0
~ status=variable
~ class=1
~ Vminpu=0.95
~ Vmaxpu=1.05
~ Vminnorm=0.0
~ Vminemerg=0.0
~ xfkVA=0.0
~ allocationfactor=0.500
~ kVA=     0.7
~ %mean=50
~ %stddev=10
~ CVRwatts=1
~ CVRvars=2
~ kwh=0
~ kwhdays=30
~ Cfactor=4
~ CVRcurve=
~ NumCust=1
~ ZIPV="
~ %SeriesRL=    50.0
~ RelWeight=1
~ Vlowpu=0.5
~ puXharm=0
~ XRharm=6
~ spectrum=defaultload
~ basefreq=50
~ enabled=true
~ like=

New Load.unknown1
! ENABLED
! NPhases = 3
! Nconds = 4
! Nterms = 1
! Yorder = 4
! NodeRef = "nil"
! Terminal Status: [C C C C ]
! Terminal Bus Ref: [-1 -1 -1 -1 ]

! VARIABLES
~ phases=3
~ bus1=117766
~ kV=0.4
~ kW=     0.7
~ pf=1.000
~ model=1
~ yearly=
~ daily=Shape_1
~ duty=
~ growth=
~ conn=wye
~ kvar=     0.0
~ Rneut=-1
~ Xneut=0
~ status=variable
~ class=1
~ Vminpu=0.95
~ Vmaxpu=1.05
~ Vminnorm=0.0
~ Vminemerg=0.0
~ xfkVA=0.0
~ allocationfactor=0.500
~ kVA=     0.7
~ %mean=50
~ %stddev=10
~ CVRwatts=1
~ CVRvars=2
~ kwh=0
~ kwhdays=30
~ Cfactor=4
~ CVRcurve=
~ NumCust=1
~ ZIPV="
~ %SeriesRL=    50.0
~ RelWeight=1
~ Vlowpu=0.5
~ puXharm=0
~ XRharm=6
~ spectrum=defaultload
~ basefreq=50
~ enabled=true
~ like=

New Load.unknown2
! ENABLED
! NPhases = 3
! Nconds = 4
! Nterms = 1
! Yorder = 4
! NodeRef = "nil"
! Terminal Status: [C C C C ]
! Terminal Bus Ref: [-1 -1 -1 -1 ]

! VARIABLES
~ phases=3
~ bus1=107756
~ kV=0.4
~ kW=     0.7
~ pf=1.000
~ model=1
~ yearly=
~ daily=Shape_1
~ duty=
~ growth=
~ conn=wye
~ kvar=     0.0
~ Rneut=-1
~ Xneut=0
~ status=variable
~ class=1
~ Vminpu=0.95
~ Vmaxpu=1.05
~ Vminnorm=0.0
~ Vminemerg=0.0
~ xfkVA=0.0
~ allocationfactor=0.500
~ kVA=     0.7
~ %mean=50
~ %stddev=10
~ CVRwatts=1
~ CVRvars=2
~ kwh=0
~ kwhdays=30
~ Cfactor=4
~ CVRcurve=
~ NumCust=1
~ ZIPV="
~ %SeriesRL=    50.0
~ RelWeight=1
~ Vlowpu=0.5
~ puXharm=0
~ XRharm=6
~ spectrum=defaultload
~ basefreq=50
~ enabled=true
~ like=
